<?xml version="1.0" encoding="UTF-8"?>

<!-- generated on Wed Apr  8 11:05:57 2015 by SUMO netconvert Version 0.21.0
<?xml version="1.0" encoding="UTF-8"?>

<configuration xmlns:xsi="http://www.w3.org/2001/XMLSchema-instance" xsi:noNamespaceSchemaLocation="http://sumo-sim.org/xsd/netconvertConfiguration.xsd">

    <input>
        <osm-files value="mapE4-20.osm.xml"/>
    </input>

    <output>
        <output-file value="mapE4-20.net.xml"/>
    </output>

    <projection>
        <proj.utm value="true"/>
    </projection>

    <tls_building>
        <tls.join value="true"/>
    </tls_building>

    <ramp_guessing>
        <ramps.guess value="true"/>
    </ramp_guessing>

    <edge_removal>
        <remove-edges.by-vclass value="hov,taxi,bus,delivery,transport,lightrail,cityrail,rail_slow,rail_fast,motorcycle,bicycle,pedestrian"/>
        <remove-edges.isolated value="true"/>
    </edge_removal>

    <processing>
        <geometry.remove value="true"/>
    </processing>

    <report>
        <verbose value="true"/>
    </report>

</configuration>
-->

<net version="0.13" xmlns:xsi="http://www.w3.org/2001/XMLSchema-instance" xsi:noNamespaceSchemaLocation="http://sumo-sim.org/xsd/net_file.xsd">

    <location netOffset="-329255.89,-6576715.68" convBoundary="0.00,0.00,2136.33,1615.68" origBoundary="18.001752,59.294753,18.039192,59.309417" projParameter="+proj=utm +zone=34 +ellps=WGS84 +datum=WGS84 +units=m +no_defs"/>

    <edge id=":1038682170_0" function="internal">
        <lane id=":1038682170_0_0" index="0" speed="19.44" length="3.36" shape="1461.61,409.51 1462.66,406.25"/>
        <lane id=":1038682170_0_1" index="1" speed="19.44" length="3.36" shape="1463.93,411.85 1464.87,408.70"/>
    </edge>
    <edge id=":1038682170_2" function="internal">
        <lane id=":1038682170_2_0" index="0" speed="19.44" length="4.17" shape="1462.92,410.83 1467.08,411.15"/>
    </edge>
    <edge id=":119717_0" function="internal">
        <lane id=":119717_0_0" index="0" speed="19.44" length="7.40" shape="1005.89,1051.86 1007.55,1059.12"/>
        <lane id=":119717_0_1" index="1" speed="19.44" length="7.40" shape="1003.70,1049.41 1005.48,1056.55"/>
    </edge>
    <edge id=":119717_2" function="internal">
        <lane id=":119717_2_0" index="0" speed="19.44" length="61.15" shape="958.14,1094.61 964.52,1089.57 984.06,1072.33 1001.95,1056.06 1003.41,1053.98"/>
        <lane id=":119717_2_1" index="1" speed="19.44" length="61.15" shape="955.73,1092.35 962.16,1087.27 981.82,1069.91 999.83,1053.54 1001.35,1051.40"/>
    </edge>
    <edge id=":119723_0" function="internal">
        <lane id=":119723_0_0" index="0" speed="19.44" length="1.79" shape="712.00,507.12 712.51,505.96"/>
        <lane id=":119723_0_1" index="1" speed="19.44" length="1.79" shape="711.11,510.30 713.29,509.56"/>
    </edge>
    <edge id=":119723_2" function="internal">
        <lane id=":119723_2_0" index="0" speed="19.44" length="3.26" shape="710.21,513.48 713.46,514.45"/>
        <lane id=":119723_2_1" index="1" speed="19.44" length="3.26" shape="709.32,516.65 712.32,517.55"/>
    </edge>
    <edge id=":119727_0" function="internal">
        <lane id=":119727_0_0" index="0" speed="19.44" length="3.43" shape="326.71,346.56 330.10,346.89"/>
        <lane id=":119727_0_1" index="1" speed="19.44" length="3.43" shape="326.71,346.56 328.24,349.61"/>
        <lane id=":119727_0_2" index="2" speed="19.44" length="3.43" shape="324.83,349.27 326.37,352.33"/>
        <lane id=":119727_0_3" index="3" speed="19.44" length="3.43" shape="322.95,351.98 324.50,355.05"/>
    </edge>
    <edge id=":146929920_0" function="internal">
        <lane id=":146929920_0_0" index="0" speed="19.44" length="3.60" shape="989.11,1035.33 990.93,1032.90"/>
        <lane id=":146929920_0_1" index="1" speed="19.44" length="3.60" shape="989.11,1035.33 993.28,1035.39"/>
    </edge>
    <edge id=":146929920_2" function="internal">
        <lane id=":146929920_2_0" index="0" speed="19.44" length="2.93" shape="989.11,1035.33 991.25,1033.23"/>
        <lane id=":146929920_2_1" index="1" speed="19.44" length="2.93" shape="991.47,1037.64 993.51,1035.63"/>
    </edge>
    <edge id=":159088_0" function="internal">
        <lane id=":159088_0_0" index="0" speed="19.44" length="3.41" shape="642.47,512.76 639.13,513.37"/>
        <lane id=":159088_0_1" index="1" speed="19.44" length="3.41" shape="643.54,509.64 640.17,510.24"/>
    </edge>
    <edge id=":159088_2" function="internal">
        <lane id=":159088_2_0" index="0" speed="19.44" length="4.34" shape="643.06,511.03 641.21,507.11"/>
    </edge>
    <edge id=":159096_0" function="internal">
        <lane id=":159096_0_0" index="0" speed="19.44" length="3.39" shape="953.23,1071.59 955.60,1069.45"/>
        <lane id=":159096_0_1" index="1" speed="19.44" length="3.39" shape="955.28,1074.17 957.95,1071.77"/>
    </edge>
    <edge id=":311561_0" function="internal">
        <lane id=":311561_0_0" index="0" speed="19.44" length="3.36" shape="1550.26,367.09 1547.03,368.04"/>
        <lane id=":311561_0_1" index="1" speed="19.44" length="3.36" shape="1548.01,364.68 1544.80,365.58"/>
    </edge>
    <edge id=":311561_2" function="internal">
        <lane id=":311561_2_0" index="0" speed="19.44" length="4.58" shape="1545.76,362.27 1546.92,367.93"/>
        <lane id=":311561_2_1" index="1" speed="19.44" length="4.58" shape="1545.76,362.27 1544.71,365.48"/>
    </edge>
    <edge id=":311565_0" function="internal">
        <lane id=":311565_0_0" index="0" speed="19.44" length="3.83" shape="1757.46,190.73 1756.69,195.56"/>
        <lane id=":311565_0_1" index="1" speed="19.44" length="3.83" shape="1757.46,190.73 1754.76,192.88"/>
        <lane id=":311565_0_2" index="2" speed="19.44" length="3.83" shape="1755.29,188.25 1752.83,190.21"/>
    </edge>
    <edge id=":3171160372_0" function="internal">
        <lane id=":3171160372_0_0" index="0" speed="19.44" length="3.36" shape="643.48,489.55 646.63,488.78"/>
        <lane id=":3171160372_0_1" index="1" speed="19.44" length="3.36" shape="643.48,489.55 645.74,491.95"/>
        <lane id=":3171160372_0_2" index="2" speed="19.44" length="3.36" shape="642.48,492.70 644.85,495.13"/>
        <lane id=":3171160372_0_3" index="3" speed="19.44" length="3.36" shape="641.48,495.84 643.95,498.31"/>
    </edge>
    <edge id=":609146_0" function="internal">
        <lane id=":609146_0_0" index="0" speed="19.44" length="4.63" shape="1699.78,207.77 1704.43,208.43"/>
        <lane id=":609146_0_1" index="1" speed="19.44" length="4.63" shape="1701.81,210.37 1706.32,211.14"/>
    </edge>
    <edge id=":663875041_0" function="internal">
        <lane id=":663875041_0_0" index="0" speed="19.44" length="3.40" shape="938.96,602.02 936.68,599.50"/>
    </edge>
    <edge id=":888515607_0" function="internal">
        <lane id=":888515607_0_0" index="0" speed="19.44" length="3.36" shape="457.26,420.16 459.09,422.87"/>
        <lane id=":888515607_0_1" index="1" speed="19.44" length="3.36" shape="455.78,423.11 457.71,425.87"/>
        <lane id=":888515607_0_2" index="2" speed="19.44" length="3.36" shape="454.31,426.06 456.32,428.86"/>
    </edge>
    <edge id=":95156138_0" function="internal">
        <lane id=":95156138_0_0" index="0" speed="19.44" length="3.43" shape="1375.37,509.94 1378.61,508.84"/>
    </edge>

    <edge id="10714046" from="311561" to="119717" priority="13" type="highway.motorway" spreadType="center" shape="1546.92,365.70 1447.88,475.10 1333.51,592.30 1289.25,632.12 1239.14,672.42 1214.48,691.13 1192.90,709.69 1159.05,747.14 1136.81,781.62 1110.30,840.53 1091.38,892.29 1065.09,951.01 1061.07,958.50 1055.12,969.19 1027.94,1012.43 1006.28,1040.89 956.94,1093.48">
        <lane id="10714046_0" index="0" speed="19.44" length="948.33" shape="1547.03,368.04 1449.11,476.21 1334.69,593.45 1290.35,633.35 1240.17,673.71 1215.48,692.45 1193.98,710.94 1160.28,748.25 1138.20,782.52 1111.80,841.20 1092.93,892.85 1066.60,951.69 1062.53,959.28 1056.56,969.99 1029.34,1013.31 1007.59,1041.89 958.14,1094.61"/>
        <lane id="10714046_1" index="1" speed="19.44" length="948.33" shape="1544.80,365.58 1446.66,474.00 1332.33,591.15 1288.15,630.90 1238.10,671.14 1213.48,689.82 1191.82,708.44 1157.83,746.04 1135.43,780.73 1108.79,839.85 1089.83,891.72 1063.58,950.34 1059.62,957.72 1053.67,968.39 1026.54,1011.56 1004.96,1039.89 955.73,1092.35"/>
    </edge>
    <edge id="16885256#0" from="159096" to="146929920" priority="13" type="highway.motorway" spreadType="center">
        <lane id="16885256#0_0" index="0" speed="19.44" length="47.83" shape="955.60,1069.45 989.11,1035.33"/>
        <lane id="16885256#0_1" index="1" speed="19.44" length="47.83" shape="957.95,1071.77 991.47,1037.64"/>
    </edge>
    <edge id="16885256#1" from="146929920" to="159088" priority="13" type="highway.motorway" spreadType="center" shape="991.31,1035.44 1006.73,1010.31 1017.97,994.56 1035.72,967.36 1043.24,950.98 1063.96,894.47 1074.55,844.23 1070.11,792.16 1058.80,748.92 1047.11,723.59 1025.14,689.97 1003.33,663.95 974.80,638.25 943.42,619.03 882.74,593.42 809.14,568.70 641.59,510.71">
        <lane id="16885256#1_0" index="0" speed="19.44" length="802.82" shape="990.93,1032.90 1005.32,1009.44 1016.62,993.60 1034.34,966.46 1041.74,950.29 1062.41,893.91 1072.89,844.13 1068.46,792.30 1057.24,749.48 1045.61,724.28 1023.76,690.87 1002.06,665.01 973.81,639.58 942.56,620.44 882.09,594.94 808.61,570.27 642.47,512.76"/>
        <lane id="16885256#1_1" index="1" speed="19.44" length="802.82" shape="993.28,1035.39 1008.13,1011.17 1019.31,995.52 1037.10,968.26 1044.74,951.67 1065.51,895.04 1076.22,844.34 1071.75,792.02 1060.36,748.36 1048.61,722.89 1026.52,689.07 1004.59,662.89 975.79,636.93 944.28,617.62 883.38,591.90 809.66,567.14 643.54,509.64"/>
    </edge>
    <edge id="16885405" from="159100" to="159096" priority="13" type="highway.motorway" spreadType="center" shape="427.59,1610.06 448.08,1570.37 501.85,1481.97 575.09,1391.24 617.64,1346.83 714.88,1267.23 778.64,1216.58 936.77,1090.98">
        <lane id="16885405_0" index="0" speed="19.44" length="760.23" shape="423.19,1607.79 443.68,1568.10 497.62,1479.40 571.24,1388.13 614.06,1343.41 711.74,1263.40 775.57,1212.70 953.23,1071.59"/>
        <lane id="16885405_1" index="1" speed="19.44" length="760.23" shape="426.12,1609.30 446.61,1569.61 500.44,1481.11 573.81,1390.20 616.44,1345.69 713.83,1265.95 777.62,1215.29 955.28,1074.17"/>
        <lane id="16885405_2" index="2" speed="19.44" length="760.23" shape="429.05,1610.82 449.54,1571.13 503.26,1482.83 576.38,1392.27 618.83,1347.97 715.92,1268.51 779.67,1217.87 957.33,1076.76"/>
        <lane id="16885405_3" index="3" speed="19.44" length="760.23" shape="431.98,1612.33 452.47,1572.64 506.08,1484.54 578.95,1394.34 621.21,1350.25 718.01,1271.06 781.72,1220.46 959.38,1079.34"/>
    </edge>
    <edge id="205884051" from="888515607" to="3171160372" priority="13" type="highway.motorway" spreadType="center" shape="456.37,425.25 499.48,445.18 510.43,449.16 542.68,460.91 643.88,493.14">
        <lane id="205884051_0" index="0" speed="19.44" length="196.73" shape="459.09,422.87 500.87,442.18 511.56,446.06 543.81,457.81 643.48,489.55"/>
        <lane id="205884051_1" index="1" speed="19.44" length="196.73" shape="457.71,425.87 499.48,445.18 510.43,449.16 542.68,460.91 642.48,492.70"/>
        <lane id="205884051_2" index="2" speed="19.44" length="196.73" shape="456.32,428.86 498.10,448.17 509.30,452.26 541.55,464.01 641.48,495.84"/>
    </edge>
    <edge id="205884052" from="311561" to="663875041" priority="13" type="highway.motorway" spreadType="center" shape="1546.92,365.70 1475.89,429.93 1460.72,446.50 1432.66,475.84 1381.22,529.45 1325.30,583.52 1298.21,607.93 1257.13,632.86 1219.92,646.30 1175.11,654.56 1132.51,655.69 1091.61,649.61 1044.29,637.26 938.10,599.97">
        <lane id="205884052_0" index="0" speed="19.44" length="722.98" shape="1546.92,367.93 1477.00,431.16 1461.94,447.61 1433.85,476.98 1382.41,530.60 1326.45,584.71 1299.20,609.26 1257.85,634.35 1220.48,647.85 1175.41,656.18 1132.56,657.34 1091.37,651.24 1043.87,638.86 938.96,602.02"/>
        <lane id="205884052_1" index="1" speed="19.44" length="722.98" shape="1544.71,365.48 1474.79,428.71 1459.51,445.38 1431.47,474.70 1380.03,528.31 1324.15,582.34 1297.22,606.60 1256.42,631.36 1219.36,644.74 1174.81,652.93 1132.47,654.04 1091.86,647.97 1044.70,635.67 940.06,598.91"/>
    </edge>
    <edge id="205884053" from="119727" to="888515607" priority="13" type="highway.motorway" spreadType="center" shape="326.07,350.13 364.98,376.84 405.26,399.71 456.37,425.25">
        <lane id="205884053_0" index="0" speed="19.44" length="147.68" shape="330.10,346.89 367.78,372.76 407.70,395.41 457.26,420.16"/>
        <lane id="205884053_1" index="1" speed="19.44" length="147.68" shape="328.24,349.61 365.91,375.48 406.08,398.28 455.78,423.11"/>
        <lane id="205884053_2" index="2" speed="19.44" length="147.68" shape="326.37,352.33 364.04,378.20 404.45,401.15 454.31,426.06"/>
        <lane id="205884053_3" index="3" speed="19.44" length="147.68" shape="324.50,355.05 362.18,380.92 402.82,404.02 452.83,429.01"/>
    </edge>
    <edge id="205884054" from="1038682170" to="609146" priority="13" type="highway.motorway" spreadType="center" shape="1463.80,409.66 1560.33,322.58 1621.06,273.43 1677.65,229.24">
        <lane id="205884054_0" index="0" speed="19.44" length="309.15" shape="1462.66,406.25 1558.12,320.13 1618.99,270.87 1699.78,207.77"/>
        <lane id="205884054_1" index="1" speed="19.44" length="309.15" shape="1464.87,408.70 1560.33,322.58 1621.06,273.43 1701.81,210.37"/>
        <lane id="205884054_2" index="2" speed="19.44" length="309.15" shape="1467.08,411.15 1562.54,325.03 1623.14,276.00 1703.85,212.97"/>
    </edge>
    <edge id="205884056" from="663875041" to="159088" priority="13" type="highway.motorway" spreadType="center" shape="938.10,599.97 804.86,555.66 689.56,521.05 641.59,510.71">
        <lane id="205884056_0" index="0" speed="19.44" length="306.87" shape="936.68,599.50 804.86,555.66 689.56,521.05 643.06,511.03"/>
    </edge>
    <edge id="205884411" from="609146" to="245568408" priority="13" type="highway.motorway" spreadType="center" shape="1677.65,229.24 1766.89,166.62 1832.31,117.42 1879.05,89.39 1926.30,66.71 2004.19,42.09 2048.42,32.85 2084.15,29.25 2136.22,26.82">
        <lane id="205884411_0" index="0" speed="19.44" length="478.83" shape="1704.43,208.43 1765.94,165.27 1831.32,116.10 1878.20,87.97 1925.59,65.22 2003.70,40.52 2048.09,31.24 2083.98,27.60 2136.15,25.17"/>
        <lane id="205884411_1" index="1" speed="19.44" length="478.83" shape="1706.32,211.14 1767.84,167.97 1833.30,118.74 1879.90,90.80 1927.02,68.20 2004.69,43.67 2048.76,34.47 2084.31,30.89 2136.30,28.47"/>
    </edge>
    <edge id="205884412" from="311565" to="311561" priority="13" type="highway.motorway" spreadType="center" shape="1741.65,202.36 1690.12,239.58 1633.40,284.87 1546.92,365.70">
        <lane id="205884412_0" index="0" speed="19.44" length="269.21" shape="1756.69,195.56 1692.05,242.25 1635.46,287.45 1550.26,367.09"/>
        <lane id="205884412_1" index="1" speed="19.44" length="269.21" shape="1754.76,192.88 1690.12,239.58 1633.40,284.87 1548.01,364.68"/>
        <lane id="205884412_2" index="2" speed="19.44" length="269.21" shape="1752.83,190.21 1688.19,236.90 1631.34,282.29 1545.76,362.27"/>
    </edge>
    <edge id="205889186" from="119717" to="119712" priority="13" type="highway.motorway" spreadType="center" shape="956.94,1093.48 730.37,1275.72 632.22,1358.04 572.01,1419.92 517.27,1489.52 473.49,1559.18 443.46,1615.68">
        <lane id="205889186_0" index="0" speed="19.44" length="800.99" shape="1007.55,1059.12 733.47,1279.58 635.40,1361.83 575.56,1423.37 521.16,1492.58 477.68,1561.81 447.83,1618.01"/>
        <lane id="205889186_1" index="1" speed="19.44" length="800.99" shape="1005.48,1056.55 731.40,1277.01 633.28,1359.30 573.19,1421.07 518.57,1490.54 474.89,1560.06 444.92,1616.46"/>
        <lane id="205889186_2" index="2" speed="19.44" length="800.99" shape="1003.41,1053.98 729.33,1274.44 631.16,1356.78 570.83,1418.77 515.97,1488.50 472.10,1558.30 442.00,1614.91"/>
        <lane id="205889186_3" index="3" speed="19.44" length="800.99" shape="1001.35,1051.40 727.27,1271.87 629.04,1354.25 568.46,1416.47 513.38,1486.46 469.30,1556.55 439.09,1613.36"/>
    </edge>
    <edge id="237156616" from="95156138" to="1038682170" priority="13" type="highway.motorway" spreadType="center" shape="1377.60,509.95 1436.17,446.31 1463.80,409.66">
        <lane id="237156616_0" index="0" speed="19.44" length="129.42" shape="1378.61,508.84 1436.17,446.31 1462.92,410.83"/>
    </edge>
    <edge id="27368517" from="300450679" to="119727" priority="13" type="highway.motorway" spreadType="center" shape="9.60,0.00 120.33,133.44 202.29,232.04 236.18,270.87 246.14,282.29 292.67,326.95 326.07,350.13">
        <lane id="27368517_0" index="0" speed="19.44" length="471.95" shape="12.14,-2.11 122.87,131.33 204.82,229.93 238.66,268.70 248.63,280.12 294.96,324.57 326.71,346.56"/>
        <lane id="27368517_1" index="1" speed="19.44" length="471.95" shape="9.60,0.00 120.33,133.44 202.29,232.04 236.18,270.87 246.14,282.29 292.67,326.95 324.83,349.27"/>
        <lane id="27368517_2" index="2" speed="19.44" length="471.95" shape="7.06,2.11 117.79,135.55 199.75,234.15 233.69,273.04 243.66,284.46 290.39,329.33 322.95,351.98"/>
    </edge>
    <edge id="311466216" from="3171160372" to="119723" priority="13" type="highway.motorway" spreadType="center">
        <lane id="311466216_0" index="0" speed="19.44" length="67.89" shape="646.63,488.78 712.00,507.12"/>
        <lane id="311466216_1" index="1" speed="19.44" length="67.89" shape="645.74,491.95 711.11,510.30"/>
        <lane id="311466216_2" index="2" speed="19.44" length="67.89" shape="644.85,495.13 710.21,513.48"/>
        <lane id="311466216_3" index="3" speed="19.44" length="67.89" shape="643.95,498.31 709.32,516.65"/>
    </edge>
    <edge id="52089959" from="159088" to="1489425839" priority="13" type="highway.motorway" spreadType="center" shape="641.59,510.71 589.86,493.55 538.47,475.43 489.71,455.79 449.92,437.33 397.15,412.05 356.29,387.91 329.53,370.90 293.68,342.95 284.99,336.18 235.81,290.12 191.38,237.75 109.52,141.24 0.00,9.26">
        <lane id="52089959_0" index="0" speed="19.44" length="832.19" shape="639.13,513.37 588.82,496.68 537.37,478.54 488.47,458.85 448.53,440.33 395.73,415.03 354.61,390.75 327.76,373.68 291.65,345.55 282.96,338.79 233.56,292.53 188.86,239.88 107.00,143.38 -2.54,11.37"/>
        <lane id="52089959_1" index="1" speed="19.44" length="832.19" shape="640.17,510.24 589.86,493.55 538.47,475.43 489.71,455.79 449.92,437.33 397.15,412.05 356.29,387.91 329.53,370.90 293.68,342.95 284.99,336.18 235.81,290.12 191.38,237.75 109.52,141.24 -0.00,9.26"/>
        <lane id="52089959_2" index="2" speed="19.44" length="832.19" shape="641.21,507.11 590.90,490.42 539.56,472.32 490.94,452.72 451.31,434.34 398.58,409.07 357.97,385.06 331.30,368.11 295.71,340.35 287.02,333.58 238.07,287.71 193.90,235.61 112.03,139.11 2.54,7.16"/>
    </edge>
    <edge id="75242510" from="119723" to="119717" priority="13" type="highway.motorway" spreadType="center" shape="664.53,498.94 699.76,504.29 749.98,517.57 835.17,537.54 932.26,562.28 962.04,573.64 990.58,586.08 1021.89,602.29 1051.54,627.19 1076.78,654.80 1098.64,684.95 1117.88,729.23 1126.81,768.62 1127.90,822.46 1120.81,866.28 1107.81,903.82 1091.75,934.45 1070.01,974.48 1038.19,1015.94 1012.22,1043.98 956.94,1093.48">
        <lane id="75242510_0" index="0" speed="19.44" length="844.91" shape="712.51,505.96 750.40,515.97 835.54,535.94 932.66,560.68 962.63,572.10 991.24,584.56 1022.82,600.91 1052.60,625.93 1078.00,653.68 1100.08,684.13 1119.45,728.71 1128.46,768.42 1129.55,822.57 1122.44,866.55 1109.37,904.36 1093.21,935.22 1071.46,975.26 1039.50,1016.95 1013.44,1045.10 1005.89,1051.86"/>
        <lane id="75242510_1" index="1" speed="19.44" length="844.91" shape="713.29,509.56 749.55,519.16 834.79,539.15 931.85,563.88 961.45,575.18 989.92,587.59 1020.97,603.67 1050.48,628.45 1075.56,655.91 1097.20,685.77 1116.30,729.74 1125.16,768.83 1126.24,822.34 1119.18,866.02 1106.25,903.28 1090.29,933.69 1068.56,973.69 1036.88,1014.94 1011.01,1042.86 1003.70,1049.41"/>
    </edge>
    <edge id="8019402" from="245568113" to="311565" priority="13" type="highway.motorway" spreadType="center" shape="2136.33,37.99 2084.98,40.00 2047.31,45.06 2007.29,53.28 1933.11,76.37 1884.53,98.32 1840.36,125.68 1781.46,167.58 1741.65,202.36">
        <lane id="8019402_0" index="0" speed="19.44" length="418.80" shape="2136.40,39.64 2085.05,41.65 2047.53,46.69 2007.62,54.90 1933.60,77.94 1885.21,99.83 1841.23,127.08 1782.42,168.92 1757.46,190.73"/>
        <lane id="8019402_1" index="1" speed="19.44" length="418.80" shape="2136.27,36.34 2084.92,38.35 2047.09,43.42 2006.95,51.67 1932.62,74.79 1883.85,96.82 1839.49,124.28 1780.51,166.23 1755.29,188.25"/>
    </edge>
    <edge id="8019494" from="146929920" to="1038682170" priority="13" type="highway.motorway" spreadType="center" shape="991.31,1035.44 1008.13,1019.56 1021.16,1004.50 1046.59,964.77 1052.22,953.21 1081.15,890.14 1103.72,829.94 1138.90,742.47 1165.43,692.79 1218.77,626.89 1262.00,591.46 1295.79,565.96 1376.04,496.61 1463.80,409.66">
        <lane id="8019494_0" index="0" speed="19.44" length="797.05" shape="991.25,1033.23 1007.00,1018.36 1019.91,1003.42 1045.20,963.88 1050.73,952.48 1079.65,889.45 1102.18,829.36 1137.37,741.86 1164.05,691.87 1217.59,625.72 1260.95,590.18 1294.80,564.65 1374.96,495.36 1461.61,409.51"/>
        <lane id="8019494_1" index="1" speed="19.44" length="797.05" shape="993.51,1035.63 1009.26,1020.76 1022.41,1005.58 1047.98,965.65 1053.70,953.93 1082.65,890.82 1105.27,830.52 1140.43,743.09 1166.81,693.71 1219.95,628.06 1263.04,592.74 1296.79,567.28 1377.12,497.86 1463.93,411.85"/>
    </edge>
    <edge id="87407843" from="119723" to="95156138" priority="13" type="highway.motorway" spreadType="center" shape="664.53,498.94 699.03,511.66 928.24,583.45 1013.75,613.84 1051.10,624.47 1095.06,634.16 1129.64,637.38 1180.02,636.60 1228.88,627.05 1260.07,614.59 1302.57,586.57 1334.09,557.38 1377.60,509.95">
        <lane id="87407843_0" index="0" speed="19.44" length="725.48" shape="713.46,514.45 928.73,581.87 1014.30,612.29 1051.56,622.88 1095.41,632.55 1129.79,635.73 1179.84,634.95 1228.42,625.46 1259.30,613.12 1301.66,585.19 1332.97,556.17 1375.37,509.94"/>
        <lane id="87407843_1" index="1" speed="19.44" length="725.48" shape="712.32,517.55 927.74,585.02 1013.20,615.40 1050.65,626.05 1094.70,635.78 1129.49,639.02 1180.19,638.24 1229.35,628.64 1260.84,616.06 1303.47,587.95 1335.21,558.59 1377.80,512.17"/>
    </edge>

    <junction id="1038682170" type="priority" x="1463.80" y="409.66" incLanes="8019494_0 8019494_1 237156616_0" intLanes=":1038682170_0_0 :1038682170_0_1 :1038682170_2_0" shape="1468.15,412.33 1461.59,405.06 1460.49,408.37 1465.06,412.99">
        <request index="0" response="000" foes="000" cont="0"/>
        <request index="1" response="000" foes="000" cont="0"/>
        <request index="2" response="000" foes="000" cont="0"/>
    </junction>
    <junction id="119712" type="unregulated" x="443.46" y="1615.68" incLanes="205889186_0 205889186_1 205889186_2 205889186_3" intLanes="" shape="449.24,1618.76 437.68,1612.61"/>
    <junction id="119717" type="priority" x="956.94" y="1093.48" incLanes="75242510_0 75242510_1 10714046_0 10714046_1" intLanes=":119717_0_0 :119717_0_1 :119717_2_0 :119717_2_1" shape="1006.96,1053.05 1002.63,1048.22 1000.34,1050.16 1008.55,1060.37">
        <request index="0" response="0000" foes="0000" cont="0"/>
        <request index="1" response="0000" foes="0000" cont="0"/>
        <request index="2" response="0000" foes="0000" cont="0"/>
        <request index="3" response="0000" foes="0000" cont="0"/>
    </junction>
    <junction id="119723" type="priority" x="664.53" y="498.94" incLanes="311466216_0 311466216_1 311466216_2 311466216_3" intLanes=":119723_0_0 :119723_0_1 :119723_2_0 :119723_2_1" shape="711.77,519.05 714.01,512.95 712.43,505.58 708.89,518.19">
        <request index="0" response="0000" foes="0000" cont="0"/>
        <request index="1" response="0000" foes="0000" cont="0"/>
        <request index="2" response="0000" foes="0000" cont="0"/>
        <request index="3" response="0000" foes="0000" cont="0"/>
    </junction>
    <junction id="119727" type="priority" x="326.07" y="350.13" incLanes="27368517_0 27368517_1 27368517_2" intLanes=":119727_0_0 :119727_0_1 :119727_0_2 :119727_0_3" shape="323.59,356.37 331.01,345.57 327.62,345.24 322.04,353.29">
        <request index="0" response="0000" foes="0000" cont="0"/>
        <request index="1" response="0000" foes="0000" cont="0"/>
        <request index="2" response="0000" foes="0000" cont="0"/>
        <request index="3" response="0000" foes="0000" cont="0"/>
    </junction>
    <junction id="146929920" type="priority" x="991.31" y="1035.44" incLanes="16885256#0_0 16885256#0_1" intLanes=":146929920_0_0 :146929920_0_1 :146929920_2_0 :146929920_2_1" shape="994.61,1036.80 990.15,1032.07 987.97,1034.21 992.61,1038.76">
        <request index="0" response="0000" foes="0000" cont="0"/>
        <request index="1" response="0000" foes="0000" cont="0"/>
        <request index="2" response="0000" foes="0000" cont="0"/>
        <request index="3" response="0000" foes="0000" cont="0"/>
    </junction>
    <junction id="1489425839" type="unregulated" x="0.00" y="9.26" incLanes="52089959_0 52089959_1 52089959_2" intLanes="" shape="-3.77,12.39 3.77,6.13"/>
    <junction id="159088" type="priority" x="641.59" y="510.71" incLanes="16885256#1_0 16885256#1_1 205884056_0" intLanes=":159088_0_0 :159088_0_1 :159088_2_0" shape="641.94,514.27 644.07,508.13 641.71,505.59 638.63,514.89">
        <request index="0" response="000" foes="000" cont="0"/>
        <request index="1" response="000" foes="000" cont="0"/>
        <request index="2" response="000" foes="000" cont="0"/>
    </junction>
    <junction id="159096" type="priority" x="936.77" y="1090.98" incLanes="16885405_0 16885405_1 16885405_2 16885405_3" intLanes=":159096_0_0 :159096_0_1" shape="959.09,1072.89 954.46,1068.33 952.23,1070.34 960.38,1080.59">
        <request index="0" response="00" foes="00" cont="0"/>
        <request index="1" response="00" foes="00" cont="0"/>
    </junction>
    <junction id="159100" type="unregulated" x="427.59" y="1610.06" incLanes="" intLanes="" shape="433.41,1613.07 421.76,1607.06"/>
    <junction id="245568113" type="unregulated" x="2136.33" y="37.99" incLanes="" intLanes="" shape="2136.20,34.74 2136.46,41.23"/>
    <junction id="245568408" type="unregulated" x="2136.22" y="26.82" incLanes="205884411_0 205884411_1" intLanes="" shape="2136.07,23.57 2136.37,30.07"/>
    <junction id="300450679" type="unregulated" x="9.60" y="0.00" incLanes="" intLanes="" shape="5.83,3.13 13.37,-3.13"/>
    <junction id="311561" type="priority" x="1546.92" y="365.70" incLanes="205884412_0 205884412_1 205884412_2" intLanes=":311561_0_0 :311561_0_1 :311561_2_0 :311561_2_1" shape="1551.36,368.26 1544.67,361.10 1543.63,364.29 1547.99,369.11">
        <request index="0" response="0000" foes="0000" cont="0"/>
        <request index="1" response="0000" foes="0000" cont="0"/>
        <request index="2" response="0000" foes="0000" cont="0"/>
        <request index="3" response="0000" foes="0000" cont="0"/>
    </junction>
    <junction id="311565" type="priority" x="1741.65" y="202.36" incLanes="8019402_0 8019402_1" intLanes=":311565_0_0 :311565_0_1 :311565_0_2" shape="1758.51,191.94 1754.24,187.05 1751.89,188.91 1757.63,196.86">
        <request index="0" response="000" foes="000" cont="0"/>
        <request index="1" response="000" foes="000" cont="0"/>
        <request index="2" response="000" foes="000" cont="0"/>
    </junction>
    <junction id="3171160372" type="priority" x="643.88" y="493.14" incLanes="205884051_0 205884051_1 205884051_2" intLanes=":3171160372_0_0 :3171160372_0_1 :3171160372_0_2 :3171160372_0_3" shape="643.52,499.85 647.06,487.23 643.96,488.03 640.99,497.37">
        <request index="0" response="0000" foes="0000" cont="0"/>
        <request index="1" response="0000" foes="0000" cont="0"/>
        <request index="2" response="0000" foes="0000" cont="0"/>
        <request index="3" response="0000" foes="0000" cont="0"/>
    </junction>
    <junction id="609146" type="priority" x="1677.65" y="229.24" incLanes="205884054_0 205884054_1 205884054_2" intLanes=":609146_0_0 :609146_0_1" shape="1707.24,212.45 1703.51,207.12 1698.80,206.51 1704.83,214.23">
        <request index="0" response="00" foes="00" cont="0"/>
        <request index="1" response="00" foes="00" cont="0"/>
    </junction>
    <junction id="663875041" type="priority" x="938.10" y="599.97" incLanes="205884052_0 205884052_1" intLanes=":663875041_0_0" shape="938.43,603.53 940.59,597.40 937.19,597.98 936.18,601.01">
        <request index="0" response="0" foes="0" cont="0"/>
    </junction>
    <junction id="888515607" type="priority" x="456.37" y="425.25" incLanes="205884053_0 205884053_1 205884053_2 205884053_3" intLanes=":888515607_0_0 :888515607_0_1 :888515607_0_2" shape="455.65,430.31 459.76,421.42 457.97,418.73 452.12,430.45">
        <request index="0" response="000" foes="000" cont="0"/>
        <request index="1" response="000" foes="000" cont="0"/>
        <request index="2" response="000" foes="000" cont="0"/>
    </junction>
    <junction id="95156138" type="priority" x="1377.60" y="509.95" incLanes="87407843_0 87407843_1" intLanes=":95156138_0_0" shape="1379.79,509.93 1377.43,507.76 1374.19,508.85 1378.98,513.25">
        <request index="0" response="0" foes="0" cont="0"/>
    </junction>

    <connection from="10714046" to="205889186" fromLane="0" toLane="2" pass="1" via=":119717_2_0" dir="s" state="M"/>